v1 0 5 6

.dc v1 0 3 0.1
.dc v0 0 3 0.1

.dc v1 0 3 -0.1
.dc v1 6 3 0.1

.dc
.dc v1
.dc v1 0
.dc v1 0 3

.dc v1 7 7 0.1
.dc v1 8 9 0
