vcc 6 0 12
vin 1 0 0
cb1 2 4 .1e-12
rc1 6 2 1000
rc2 6 5 1000
rb1 2 4 5600
rb2 4 0 4700
re 3 0 470

.dc vin 0 12 .1

.plot v(1) v(5)
