v1 5 0 2 EXP(2 5 1 0.2 2 0.5)
v2 3 2 0.2 PULSE(0.2 1 1 0.1 0.4 0.5 2)
v3 7 6 2
i1 4 8 1e-3 SIN(1e-3 0.5 5 1 1 30)
i2 0 6 1e-3 PWL(0 1e-3) (1.2 0.1) (1.4 1) (2 0.2) (3 0.4)
.option method=tr
.tran 0.1 3
.plot v(2) v(4) v(5)
